<configuration>

    <input>
        <net-file value="ticoman2.net.xml"/>
        <route-files value="RUTAS2.rou.xml"/>
    </input>

    <time>
        <begin value="0"/>
        <end value="3600"/>
    </time>

</configuration>