<?xml version="1.0" encoding="UTF-8"?>

<!-- generated on 2026-07-12T22:54:32.221418-06:00 by Eclipse SUMO netedit 1.26.0
<neteditConfiguration xmlns:xsi="http://www.w3.org/2001/XMLSchema-instance" xsi:noNamespaceSchemaLocation="http://sumo.dlr.de/xsd/neteditConfiguration.xsd">

    <input>
        <sumo-net-file value="/home/alejandro/sumo-rl/SimulacionesSUMO/single-intersecition-V2/ticoman.net.xml"/>
    </input>

    <output>
        <output-file value="/home/alejandro/sumo-rl/SimulacionesSUMO/single-intersecition-V2/ticoman.net.xml"/>
    </output>

    <processing>
        <geometry.min-radius.fix.railways value="false"/>
        <geometry.avoid-overlap value="false"/>
        <geometry.max-grade.fix value="false"/>
        <offset.disable-normalization value="true"/>
        <lefthand value="0"/>
    </processing>

    <junctions>
        <no-turnarounds value="true"/>
        <junctions.corner-detail value="5"/>
        <junctions.limit-turn-speed value="5.50"/>
        <rectangular-lane-cut value="0"/>
    </junctions>

    <pedestrian>
        <walkingareas value="0"/>
    </pedestrian>

</neteditConfiguration>
-->

<net version="1.20" junctionCornerDetail="5" limitTurnSpeed="5.50" avoidOverlap="0" xmlns:xsi="http://www.w3.org/2001/XMLSchema-instance" xsi:noNamespaceSchemaLocation="http://sumo.dlr.de/xsd/net_file.xsd">

    <location netOffset="-486396.27,-2155413.64" convBoundary="159.69,447.64,726.73,1018.19" origBoundary="-99.141181,19.493279,-99.119889,19.531104" projParameter="+proj=utm +zone=14 +ellps=WGS84 +datum=WGS84 +units=m +no_defs"/>

    <type id="highway.residential" priority="3" numLanes="1" speed="13.89" disallow="tram rail_urban rail rail_electric rail_fast ship container cable_car subway aircraft wheelchair scooter drone" oneway="0"/>
    <type id="highway.secondary" priority="11" numLanes="1" speed="27.78" disallow="tram rail_urban rail rail_electric rail_fast ship container cable_car subway aircraft wheelchair scooter drone" oneway="0"/>

    <edge id=":1792539934_0" function="internal">
        <lane id=":1792539934_0_0" index="0" disallow="tram rail_urban rail rail_electric rail_fast ship container cable_car subway aircraft wheelchair scooter drone" speed="3.90" length="2.64" shape="354.18,621.51 353.66,621.01 353.10,620.80 352.52,620.89 351.90,621.27"/>
    </edge>
    <edge id=":1792539934_1" function="internal">
        <lane id=":1792539934_1_0" index="0" disallow="tram rail_urban rail rail_electric rail_fast ship container cable_car subway aircraft wheelchair scooter drone" speed="5.63" length="6.66" shape="349.85,618.81 351.16,618.11 352.54,618.16 353.96,618.97 355.45,620.53"/>
    </edge>
    <edge id=":298287105_0" function="internal">
        <lane id=":298287105_0_0" index="0" disallow="tram rail_urban rail rail_electric rail_fast ship container cable_car subway aircraft wheelchair scooter drone" speed="6.58" length="8.72" shape="334.75,833.33 336.46,834.99 338.30,835.76 340.28,835.64 342.41,834.63"/>
    </edge>
    <edge id=":298287105_1" function="internal">
        <lane id=":298287105_1_0" index="0" disallow="tram rail_urban rail rail_electric rail_fast ship container cable_car subway aircraft wheelchair scooter drone" speed="6.52" length="8.67" shape="331.47,842.95 333.02,841.17 333.66,839.30 333.39,837.34 332.22,835.29"/>
    </edge>
    <edge id=":298287105_2" function="internal">
        <lane id=":298287105_2_0" index="0" disallow="tram rail_urban rail rail_electric rail_fast ship container cable_car subway aircraft wheelchair scooter drone" speed="13.89" length="13.76" shape="331.47,842.95 334.19,840.66 336.79,838.60 339.47,836.64 342.41,834.63"/>
    </edge>
    <edge id=":298922014_0" function="internal">
        <lane id=":298922014_0_0" index="0" disallow="tram rail_urban rail rail_electric rail_fast ship container cable_car subway aircraft wheelchair scooter drone" speed="5.52" length="9.50" shape="423.03,789.81 421.95,787.05 420.57,785.93 418.86,786.46 416.85,788.63"/>
    </edge>
    <edge id=":298922014_1" function="internal">
        <lane id=":298922014_1_0" index="0" disallow="tram rail_urban rail rail_electric rail_fast ship container cable_car subway aircraft wheelchair scooter drone" speed="11.70" length="14.03" shape="426.31,775.32 425.30,777.67 424.93,780.73 425.21,784.51 426.13,789.02"/>
    </edge>
    <edge id=":298922014_2" function="internal">
        <lane id=":298922014_2_0" index="0" disallow="tram rail_urban rail rail_electric rail_fast ship container cable_car subway aircraft wheelchair scooter drone" speed="13.89" length="16.23" shape="426.31,775.32 416.85,788.63"/>
        <lane id=":298922014_2_1" index="1" disallow="tram rail_urban rail rail_electric rail_fast ship container cable_car subway aircraft wheelchair scooter drone" speed="13.89" length="16.23" shape="423.66,773.54 414.25,786.76"/>
        <lane id=":298922014_2_2" index="2" disallow="tram rail_urban rail rail_electric rail_fast ship container cable_car subway aircraft wheelchair scooter drone" speed="13.89" length="16.23" shape="421.01,771.75 411.66,784.88"/>
    </edge>
    <edge id=":301603831_0" function="internal">
        <lane id=":301603831_0_0" index="0" disallow="tram rail_urban rail rail_electric rail_fast ship container cable_car subway aircraft wheelchair scooter drone" speed="5.50" length="9.58" shape="379.99,849.93 378.86,847.13 377.47,846.04 375.80,846.64 373.87,848.95"/>
    </edge>
    <edge id=":301603831_1" function="internal">
        <lane id=":301603831_1_0" index="0" disallow="tram rail_urban rail rail_electric rail_fast ship container cable_car subway aircraft wheelchair scooter drone" speed="11.38" length="14.31" shape="383.15,835.16 382.09,837.48 381.73,840.57 382.06,844.44 383.08,849.10"/>
    </edge>
    <edge id=":301603831_2" function="internal">
        <lane id=":301603831_2_0" index="0" disallow="tram rail_urban rail rail_electric rail_fast ship container cable_car subway aircraft wheelchair scooter drone" speed="13.89" length="16.77" shape="383.15,835.16 373.87,848.95"/>
        <lane id=":301603831_2_1" index="1" disallow="tram rail_urban rail rail_electric rail_fast ship container cable_car subway aircraft wheelchair scooter drone" speed="13.89" length="16.77" shape="380.55,833.28 371.19,847.20"/>
        <lane id=":301603831_2_2" index="2" disallow="tram rail_urban rail rail_electric rail_fast ship container cable_car subway aircraft wheelchair scooter drone" speed="13.89" length="16.77" shape="377.96,831.40 368.51,845.44"/>
    </edge>
    <edge id=":301603848_0" function="internal">
        <lane id=":301603848_0_0" index="0" disallow="tram rail_urban rail rail_electric rail_fast ship container cable_car subway aircraft wheelchair scooter drone" speed="6.47" length="9.03" shape="406.52,950.19 405.57,947.89 404.13,946.46 402.17,945.90 399.71,946.21"/>
    </edge>
    <edge id=":301603848_1" function="internal">
        <lane id=":301603848_1_0" index="0" disallow="tram rail_urban rail rail_electric rail_fast ship container cable_car subway aircraft wheelchair scooter drone" speed="6.54" length="9.09" shape="413.65,942.52 411.37,943.47 409.93,944.94 409.35,946.91 409.62,949.40"/>
    </edge>
    <edge id=":301603848_2" function="internal">
        <lane id=":301603848_2_0" index="0" disallow="tram rail_urban rail rail_electric rail_fast ship container cable_car subway aircraft wheelchair scooter drone" speed="27.78" length="14.44" shape="413.65,942.52 399.71,946.21"/>
        <lane id=":301603848_2_1" index="1" disallow="tram rail_urban rail rail_electric rail_fast ship container cable_car subway aircraft wheelchair scooter drone" speed="27.78" length="14.44" shape="412.85,939.42 398.87,943.12"/>
    </edge>
    <edge id=":301603850_0" function="internal">
        <lane id=":301603850_0_0" index="0" disallow="tram rail_urban rail rail_electric rail_fast ship container cable_car subway aircraft wheelchair scooter drone" speed="6.52" length="9.06" shape="404.06,926.72 405.04,929.01 406.51,930.43 408.48,930.99 410.93,930.69"/>
    </edge>
    <edge id=":301603850_1" function="internal">
        <lane id=":301603850_1_0" index="0" disallow="tram rail_urban rail rail_electric rail_fast ship container cable_car subway aircraft wheelchair scooter drone" speed="6.48" length="9.03" shape="397.00,934.38 399.28,933.43 400.71,931.97 401.27,930.01 400.97,927.55"/>
    </edge>
    <edge id=":301603850_2" function="internal">
        <lane id=":301603850_2_0" index="0" disallow="tram rail_urban rail rail_electric rail_fast ship container cable_car subway aircraft wheelchair scooter drone" speed="27.78" length="14.44" shape="397.00,934.38 410.93,930.69"/>
        <lane id=":301603850_2_1" index="1" disallow="tram rail_urban rail rail_electric rail_fast ship container cable_car subway aircraft wheelchair scooter drone" speed="27.78" length="14.44" shape="397.80,937.48 411.77,933.78"/>
    </edge>
    <edge id=":301603856_0" function="internal">
        <lane id=":301603856_0_0" index="0" disallow="tram rail_urban rail rail_electric rail_fast ship container cable_car subway aircraft wheelchair scooter drone" speed="6.47" length="9.03" shape="522.58,914.63 520.29,915.59 518.87,917.05 518.31,919.00 518.63,921.47"/>
    </edge>
    <edge id=":301603856_1" function="internal">
        <lane id=":301603856_1_0" index="0" disallow="tram rail_urban rail rail_electric rail_fast ship container cable_car subway aircraft wheelchair scooter drone" speed="27.78" length="11.19" shape="522.58,914.63 511.73,917.42"/>
        <lane id=":301603856_1_1" index="1" disallow="tram rail_urban rail rail_electric rail_fast ship container cable_car subway aircraft wheelchair scooter drone" speed="27.78" length="11.19" shape="521.77,911.53 510.94,914.31"/>
    </edge>
    <edge id=":301603859_0" function="internal">
        <lane id=":301603859_0_0" index="0" disallow="tram rail_urban rail rail_electric rail_fast ship container cable_car subway aircraft wheelchair scooter drone" speed="6.57" length="9.10" shape="513.91,897.71 514.89,900.02 516.36,901.47 518.33,902.07 520.78,901.82"/>
    </edge>
    <edge id=":301603859_1" function="internal">
        <lane id=":301603859_1_0" index="0" disallow="tram rail_urban rail rail_electric rail_fast ship container cable_car subway aircraft wheelchair scooter drone" speed="6.49" length="9.03" shape="506.84,905.37 509.13,904.41 510.55,902.96 511.12,901.00 510.82,898.54"/>
    </edge>
    <edge id=":301603859_2" function="internal">
        <lane id=":301603859_2_0" index="0" disallow="tram rail_urban rail rail_electric rail_fast ship container cable_car subway aircraft wheelchair scooter drone" speed="27.78" length="14.38" shape="506.84,905.37 520.78,901.82"/>
        <lane id=":301603859_2_1" index="1" disallow="tram rail_urban rail rail_electric rail_fast ship container cable_car subway aircraft wheelchair scooter drone" speed="27.78" length="14.38" shape="507.64,908.47 521.56,904.93"/>
    </edge>
    <edge id=":301603866_0" function="internal">
        <lane id=":301603866_0_0" index="0" disallow="tram rail_urban rail rail_electric rail_fast ship container cable_car subway aircraft wheelchair scooter drone" speed="9.54" length="9.52" shape="511.75,647.85 510.70,649.79 510.15,651.96 510.10,654.36 510.55,657.00"/>
    </edge>
    <edge id=":301603866_1" function="internal">
        <lane id=":301603866_1_0" index="0" disallow="tram rail_urban rail rail_electric rail_fast ship container cable_car subway aircraft wheelchair scooter drone" speed="13.89" length="10.23" shape="511.75,647.85 506.20,656.28"/>
        <lane id=":301603866_1_1" index="1" disallow="tram rail_urban rail rail_electric rail_fast ship container cable_car subway aircraft wheelchair scooter drone" speed="13.89" length="10.23" shape="509.14,646.00 503.51,654.54"/>
        <lane id=":301603866_1_2" index="2" disallow="tram rail_urban rail rail_electric rail_fast ship container cable_car subway aircraft wheelchair scooter drone" speed="13.89" length="10.23" shape="506.54,644.14 500.83,652.80"/>
    </edge>
    <edge id=":301603883_0" function="internal">
        <lane id=":301603883_0_0" index="0" disallow="tram rail_urban rail rail_electric rail_fast ship container cable_car subway aircraft wheelchair scooter drone" speed="3.65" length="4.67" shape="650.95,972.25 650.49,973.62 649.83,974.21 648.95,974.04 647.87,973.09"/>
    </edge>
    <edge id=":301603890_0" function="internal">
        <lane id=":301603890_0_0" index="0" disallow="tram rail_urban rail rail_electric rail_fast ship container cable_car subway aircraft wheelchair scooter drone" speed="20.84" length="21.67" shape="658.50,783.54 657.86,779.51 657.12,774.75 655.37,769.32 651.70,763.28"/>
    </edge>
    <edge id=":301603890_1" function="internal">
        <lane id=":301603890_1_0" index="0" disallow="tram rail_urban rail rail_electric rail_fast ship container cable_car subway aircraft wheelchair scooter drone" speed="5.62" length="12.00" shape="666.00,780.57 663.10,777.55 661.40,776.91 660.90,778.65 661.61,782.78"/>
    </edge>
    <edge id=":301603890_2" function="internal">
        <lane id=":301603890_2_0" index="0" disallow="tram rail_urban rail rail_electric rail_fast ship container cable_car subway aircraft wheelchair scooter drone" speed="27.78" length="22.34" shape="666.00,780.57 651.70,763.28"/>
        <lane id=":301603890_2_1" index="1" disallow="tram rail_urban rail rail_electric rail_fast ship container cable_car subway aircraft wheelchair scooter drone" speed="27.78" length="22.34" shape="668.46,778.53 654.22,761.31"/>
        <lane id=":301603890_2_2" index="2" disallow="tram rail_urban rail rail_electric rail_fast ship container cable_car subway aircraft wheelchair scooter drone" speed="27.78" length="22.34" shape="670.92,776.48 656.74,759.34"/>
    </edge>
    <edge id=":301606822_0" function="internal">
        <lane id=":301606822_0_0" index="0" disallow="tram rail_urban rail rail_electric rail_fast ship container cable_car subway aircraft wheelchair scooter drone" speed="3.65" length="4.67" shape="160.64,769.89 159.20,769.96 158.40,769.55 158.25,768.67 158.74,767.31"/>
    </edge>
    <edge id=":301606824_0" function="internal">
        <lane id=":301606824_0_0" index="0" disallow="tram rail_urban rail rail_electric rail_fast ship container cable_car subway aircraft wheelchair scooter drone" speed="5.91" length="9.10" shape="399.70,758.81 401.57,760.66 403.41,761.23 405.20,760.54 406.95,758.58"/>
    </edge>
    <edge id=":301606824_1" function="internal">
        <lane id=":301606824_1_0" index="0" disallow="tram rail_urban rail rail_electric rail_fast ship container cable_car subway aircraft wheelchair scooter drone" speed="8.10" length="10.94" shape="398.74,770.85 399.72,768.62 399.78,766.19 398.93,763.57 397.16,760.76"/>
    </edge>
    <edge id=":301606824_2" function="internal">
        <lane id=":301606824_2_0" index="0" disallow="tram rail_urban rail rail_electric rail_fast ship container cable_car subway aircraft wheelchair scooter drone" speed="13.89" length="14.78" shape="398.74,770.85 406.95,758.58"/>
        <lane id=":301606824_2_1" index="1" disallow="tram rail_urban rail rail_electric rail_fast ship container cable_car subway aircraft wheelchair scooter drone" speed="13.89" length="14.78" shape="401.40,772.64 409.61,760.35"/>
        <lane id=":301606824_2_2" index="2" disallow="tram rail_urban rail rail_electric rail_fast ship container cable_car subway aircraft wheelchair scooter drone" speed="13.89" length="14.78" shape="404.05,774.42 412.28,762.12"/>
    </edge>
    <edge id=":301606825_0" function="internal">
        <lane id=":301606825_0_0" index="0" disallow="tram rail_urban rail rail_electric rail_fast ship container cable_car subway aircraft wheelchair scooter drone" speed="6.51" length="9.03" shape="317.73,657.04 315.96,655.31 314.06,654.56 312.03,654.79 309.88,656.00"/>
    </edge>
    <edge id=":301606825_1" function="internal">
        <lane id=":301606825_1_0" index="0" disallow="tram rail_urban rail rail_electric rail_fast ship container cable_car subway aircraft wheelchair scooter drone" speed="8.12" length="14.14" shape="317.73,657.04 315.82,653.66 315.39,650.46 316.45,647.44 319.00,644.59"/>
    </edge>
    <edge id=":301606825_2" function="internal">
        <lane id=":301606825_2_0" index="0" disallow="tram rail_urban rail rail_electric rail_fast ship container cable_car subway aircraft wheelchair scooter drone" speed="3.65" length="4.67" shape="317.73,657.04 317.63,655.60 318.02,654.80 318.90,654.63 320.27,655.10"/>
    </edge>
    <edge id=":301606825_3" function="internal">
        <lane id=":301606825_3_0" index="0" disallow="tram rail_urban rail rail_electric rail_fast ship container cable_car subway aircraft wheelchair scooter drone" speed="6.65" length="9.14" shape="321.06,647.04 319.42,648.87 318.74,650.83 319.02,652.90 320.27,655.10"/>
    </edge>
    <edge id=":301606825_4" function="internal">
        <lane id=":301606825_4_0" index="0" disallow="tram rail_urban rail rail_electric rail_fast ship container cable_car subway aircraft wheelchair scooter drone" speed="13.89" length="14.33" shape="321.06,647.04 309.88,656.00"/>
    </edge>
    <edge id=":301606825_5" function="internal">
        <lane id=":301606825_5_0" index="0" disallow="tram rail_urban rail rail_electric rail_fast ship container cable_car subway aircraft wheelchair scooter drone" speed="3.65" length="1.44" shape="321.06,647.04 319.62,647.20"/>
    </edge>
    <edge id=":301606825_9" function="internal">
        <lane id=":301606825_9_0" index="0" disallow="tram rail_urban rail rail_electric rail_fast ship container cable_car subway aircraft wheelchair scooter drone" speed="3.65" length="3.23" shape="319.62,647.20 318.80,646.84 318.59,645.97 319.00,644.59"/>
    </edge>
    <edge id=":301606825_6" function="internal">
        <lane id=":301606825_6_0" index="0" disallow="tram rail_urban rail rail_electric rail_fast ship container cable_car subway aircraft wheelchair scooter drone" speed="13.89" length="14.19" shape="307.93,653.46 319.00,644.59"/>
    </edge>
    <edge id=":301606825_7" function="internal">
        <lane id=":301606825_7_0" index="0" disallow="tram rail_urban rail rail_electric rail_fast ship container cable_car subway aircraft wheelchair scooter drone" speed="8.00" length="3.89" shape="307.93,653.46 311.32,651.56"/>
    </edge>
    <edge id=":301606825_8" function="internal">
        <lane id=":301606825_8_0" index="0" disallow="tram rail_urban rail rail_electric rail_fast ship container cable_car subway aircraft wheelchair scooter drone" speed="3.65" length="1.44" shape="307.93,653.46 309.37,653.37"/>
    </edge>
    <edge id=":301606825_10" function="internal">
        <lane id=":301606825_10_0" index="0" disallow="tram rail_urban rail rail_electric rail_fast ship container cable_car subway aircraft wheelchair scooter drone" speed="8.00" length="10.30" shape="311.32,651.56 314.51,651.19 317.49,652.37 320.27,655.10"/>
    </edge>
    <edge id=":301606825_11" function="internal">
        <lane id=":301606825_11_0" index="0" disallow="tram rail_urban rail rail_electric rail_fast ship container cable_car subway aircraft wheelchair scooter drone" speed="3.65" length="3.23" shape="309.37,653.37 310.17,653.76 310.34,654.64 309.88,656.00"/>
    </edge>
    <edge id=":301606826_0" function="internal">
        <lane id=":301606826_0_0" index="0" disallow="tram rail_urban rail rail_electric rail_fast ship container cable_car subway aircraft wheelchair scooter drone" speed="6.50" length="9.04" shape="277.91,687.60 276.14,685.86 274.24,685.10 272.21,685.34 270.06,686.56"/>
    </edge>
    <edge id=":301606826_1" function="internal">
        <lane id=":301606826_1_0" index="0" disallow="tram rail_urban rail rail_electric rail_fast ship container cable_car subway aircraft wheelchair scooter drone" speed="7.68" length="12.98" shape="277.91,687.60 275.92,684.25 275.32,681.24 276.11,678.55 278.28,676.19"/>
    </edge>
    <edge id=":301606826_2" function="internal">
        <lane id=":301606826_2_0" index="0" disallow="tram rail_urban rail rail_electric rail_fast ship container cable_car subway aircraft wheelchair scooter drone" speed="6.49" length="9.03" shape="280.23,678.73 278.50,680.50 277.75,682.39 277.99,684.42 279.23,686.57"/>
    </edge>
    <edge id=":301606826_3" function="internal">
        <lane id=":301606826_3_0" index="0" disallow="tram rail_urban rail rail_electric rail_fast ship container cable_car subway aircraft wheelchair scooter drone" speed="13.89" length="12.84" shape="280.23,678.73 270.06,686.56"/>
    </edge>
    <edge id=":301606826_4" function="internal">
        <lane id=":301606826_4_0" index="0" disallow="tram rail_urban rail rail_electric rail_fast ship container cable_car subway aircraft wheelchair scooter drone" speed="3.65" length="1.44" shape="280.23,678.73 278.79,678.82"/>
    </edge>
    <edge id=":301606826_8" function="internal">
        <lane id=":301606826_8_0" index="0" disallow="tram rail_urban rail rail_electric rail_fast ship container cable_car subway aircraft wheelchair scooter drone" speed="3.65" length="3.23" shape="278.79,678.82 277.99,678.43 277.82,677.55 278.28,676.19"/>
    </edge>
    <edge id=":301606826_5" function="internal">
        <lane id=":301606826_5_0" index="0" disallow="tram rail_urban rail rail_electric rail_fast ship container cable_car subway aircraft wheelchair scooter drone" speed="13.89" length="12.85" shape="268.10,684.03 278.28,676.19"/>
    </edge>
    <edge id=":301606826_6" function="internal">
        <lane id=":301606826_6_0" index="0" disallow="tram rail_urban rail rail_electric rail_fast ship container cable_car subway aircraft wheelchair scooter drone" speed="7.68" length="3.34" shape="268.10,684.03 270.94,682.53 271.07,682.53"/>
    </edge>
    <edge id=":301606826_7" function="internal">
        <lane id=":301606826_7_0" index="0" disallow="tram rail_urban rail rail_electric rail_fast ship container cable_car subway aircraft wheelchair scooter drone" speed="3.65" length="1.44" shape="268.10,684.03 269.54,683.93"/>
    </edge>
    <edge id=":301606826_9" function="internal">
        <lane id=":301606826_9_0" index="0" disallow="tram rail_urban rail rail_electric rail_fast ship container cable_car subway aircraft wheelchair scooter drone" speed="7.68" length="9.62" shape="271.07,682.53 273.73,682.46 276.50,683.80 279.23,686.57"/>
    </edge>
    <edge id=":301606826_10" function="internal">
        <lane id=":301606826_10_0" index="0" disallow="tram rail_urban rail rail_electric rail_fast ship container cable_car subway aircraft wheelchair scooter drone" speed="3.65" length="3.23" shape="269.54,683.93 270.34,684.31 270.52,685.19 270.06,686.56"/>
    </edge>
    <edge id=":301606827_0" function="internal">
        <lane id=":301606827_0_0" index="0" disallow="tram rail_urban rail rail_electric rail_fast ship container cable_car subway aircraft wheelchair scooter drone" speed="6.49" length="8.89" shape="240.06,717.10 238.29,715.39 236.41,714.65 234.42,714.86 232.32,716.03"/>
    </edge>
    <edge id=":301606827_1" function="internal">
        <lane id=":301606827_1_0" index="0" disallow="tram rail_urban rail rail_electric rail_fast ship container cable_car subway aircraft wheelchair scooter drone" speed="7.87" length="13.79" shape="240.06,717.10 238.02,713.69 237.48,710.54 238.44,707.66 240.89,705.05"/>
    </edge>
    <edge id=":301606827_2" function="internal">
        <lane id=":301606827_2_0" index="0" disallow="tram rail_urban rail rail_electric rail_fast ship container cable_car subway aircraft wheelchair scooter drone" speed="3.65" length="4.68" shape="240.06,717.10 239.89,715.67 240.23,714.84 241.10,714.63 242.49,715.02"/>
    </edge>
    <edge id=":301606827_3" function="internal">
        <lane id=":301606827_3_0" index="0" disallow="tram rail_urban rail rail_electric rail_fast ship container cable_car subway aircraft wheelchair scooter drone" speed="6.39" length="8.73" shape="243.09,707.39 241.52,709.06 240.89,710.88 241.22,712.87 242.49,715.02"/>
    </edge>
    <edge id=":301606827_4" function="internal">
        <lane id=":301606827_4_0" index="0" disallow="tram rail_urban rail rail_electric rail_fast ship container cable_car subway aircraft wheelchair scooter drone" speed="13.89" length="13.81" shape="243.09,707.39 232.32,716.03"/>
    </edge>
    <edge id=":301606827_5" function="internal">
        <lane id=":301606827_5_0" index="0" disallow="tram rail_urban rail rail_electric rail_fast ship container cable_car subway aircraft wheelchair scooter drone" speed="3.66" length="1.45" shape="243.09,707.39 241.66,707.63"/>
    </edge>
    <edge id=":301606827_9" function="internal">
        <lane id=":301606827_9_0" index="0" disallow="tram rail_urban rail rail_electric rail_fast ship container cable_car subway aircraft wheelchair scooter drone" speed="3.66" length="3.25" shape="241.66,707.63 240.82,707.32 240.56,706.46 240.89,705.05"/>
    </edge>
    <edge id=":301606827_6" function="internal">
        <lane id=":301606827_6_0" index="0" disallow="tram rail_urban rail rail_electric rail_fast ship container cable_car subway aircraft wheelchair scooter drone" speed="13.89" length="13.35" shape="230.48,713.41 240.89,705.05"/>
    </edge>
    <edge id=":301606827_7" function="internal">
        <lane id=":301606827_7_0" index="0" disallow="tram rail_urban rail rail_electric rail_fast ship container cable_car subway aircraft wheelchair scooter drone" speed="7.93" length="3.75" shape="230.48,713.41 233.75,711.58"/>
    </edge>
    <edge id=":301606827_8" function="internal">
        <lane id=":301606827_8_0" index="0" disallow="tram rail_urban rail rail_electric rail_fast ship container cable_car subway aircraft wheelchair scooter drone" speed="3.65" length="1.44" shape="230.48,713.41 231.92,713.37"/>
    </edge>
    <edge id=":301606827_10" function="internal">
        <lane id=":301606827_10_0" index="0" disallow="tram rail_urban rail rail_electric rail_fast ship container cable_car subway aircraft wheelchair scooter drone" speed="7.93" length="10.04" shape="233.75,711.58 236.84,711.24 239.75,712.38 242.49,715.02"/>
    </edge>
    <edge id=":301606827_11" function="internal">
        <lane id=":301606827_11_0" index="0" disallow="tram rail_urban rail rail_electric rail_fast ship container cable_car subway aircraft wheelchair scooter drone" speed="3.65" length="3.23" shape="231.92,713.37 232.71,713.80 232.84,714.68 232.32,716.03"/>
    </edge>
    <edge id=":301607466_0" function="internal">
        <lane id=":301607466_0_0" index="0" disallow="tram rail_urban rail rail_electric rail_fast ship container cable_car subway aircraft wheelchair scooter drone" speed="5.95" length="9.09" shape="429.03,714.87 430.92,716.67 432.77,717.24 434.58,716.56 436.34,714.63"/>
    </edge>
    <edge id=":301607466_1" function="internal">
        <lane id=":301607466_1_0" index="0" disallow="tram rail_urban rail rail_electric rail_fast ship container cable_car subway aircraft wheelchair scooter drone" speed="7.88" length="10.36" shape="429.05,725.40 430.05,723.19 430.17,720.86 429.42,718.41 427.79,715.83"/>
    </edge>
    <edge id=":301607466_2" function="internal">
        <lane id=":301607466_2_0" index="0" disallow="tram rail_urban rail rail_electric rail_fast ship container cable_car subway aircraft wheelchair scooter drone" speed="13.89" length="12.95" shape="429.05,725.40 436.34,714.63"/>
        <lane id=":301607466_2_1" index="1" disallow="tram rail_urban rail rail_electric rail_fast ship container cable_car subway aircraft wheelchair scooter drone" speed="13.89" length="12.95" shape="431.72,727.17 438.98,716.45"/>
        <lane id=":301607466_2_2" index="2" disallow="tram rail_urban rail rail_electric rail_fast ship container cable_car subway aircraft wheelchair scooter drone" speed="13.89" length="12.95" shape="434.38,728.94 441.62,718.26"/>
    </edge>
    <edge id=":8336910882_0" function="internal">
        <lane id=":8336910882_0_0" index="0" disallow="tram rail_urban rail rail_electric rail_fast ship container cable_car subway aircraft wheelchair scooter drone" speed="20.84" length="14.58" shape="576.74,675.16 576.09,671.81 575.45,668.75 574.25,665.50 571.90,661.58"/>
    </edge>
    <edge id=":8336910882_1" function="internal">
        <lane id=":8336910882_1_0" index="0" disallow="tram rail_urban rail rail_electric rail_fast ship container cable_car subway aircraft wheelchair scooter drone" speed="27.78" length="14.57" shape="581.11,673.07 571.90,661.58"/>
        <lane id=":8336910882_1_1" index="1" disallow="tram rail_urban rail rail_electric rail_fast ship container cable_car subway aircraft wheelchair scooter drone" speed="27.78" length="14.57" shape="583.63,671.09 574.52,659.73"/>
        <lane id=":8336910882_1_2" index="2" disallow="tram rail_urban rail rail_electric rail_fast ship container cable_car subway aircraft wheelchair scooter drone" speed="27.78" length="14.57" shape="586.15,669.12 577.13,657.89"/>
    </edge>
    <edge id=":cluster298241342_8336864778_0" function="internal">
        <lane id=":cluster298241342_8336864778_0_0" index="0" disallow="tram rail_urban rail rail_electric rail_fast ship container cable_car subway aircraft wheelchair scooter drone" speed="6.20" length="10.08" shape="370.02,802.98 371.96,804.74 373.94,805.10 375.96,804.08 378.03,801.67"/>
    </edge>
    <edge id=":cluster298241342_8336864778_1" function="internal">
        <lane id=":cluster298241342_8336864778_1_0" index="0" disallow="tram rail_urban rail rail_electric rail_fast ship container cable_car subway aircraft wheelchair scooter drone" speed="10.12" length="24.51" shape="357.89,824.38 364.58,819.12 368.41,814.12 369.38,809.39 367.49,804.91"/>
    </edge>
    <edge id=":cluster298241342_8336864778_2" function="internal">