<?xml version="1.0" encoding="UTF-8"?>

<!-- generated on 2026-07-12T23:59:24.035932-06:00 by Eclipse SUMO netedit 1.26.0
<neteditConfiguration xmlns:xsi="http://www.w3.org/2001/XMLSchema-instance" xsi:noNamespaceSchemaLocation="http://sumo.dlr.de/xsd/neteditConfiguration.xsd">

    <input>
        <sumo-net-file value="/home/alejandro/sumo-rl/SimulacionesSUMO/single-intersecition-V2/ticoman2.net.xml"/>
    </input>

    <output>
        <output-file value="/home/alejandro/sumo-rl/SimulacionesSUMO/single-intersecition-V2/ticoman2.net.xml"/>
    </output>

    <processing>
        <geometry.min-radius.fix.railways value="false"/>
        <geometry.avoid-overlap value="false"/>
        <geometry.max-grade.fix value="false"/>
        <offset.disable-normalization value="true"/>
        <lefthand value="0"/>
    </processing>

    <junctions>
        <no-turnarounds value="true"/>
        <junctions.corner-detail value="5"/>
        <junctions.limit-turn-speed value="5.50"/>
        <rectangular-lane-cut value="0"/>
    </junctions>

    <pedestrian>
        <walkingareas value="0"/>
    </pedestrian>

</neteditConfiguration>
-->

<net version="1.20" junctionCornerDetail="5" limitTurnSpeed="5.50" avoidOverlap="0" xmlns:xsi="http://www.w3.org/2001/XMLSchema-instance" xsi:noNamespaceSchemaLocation="http://sumo.dlr.de/xsd/net_file.xsd">

    <location netOffset="-486396.27,-2155413.64" convBoundary="159.69,447.64,726.73,1018.19" origBoundary="-99.141181,19.493279,-99.119889,19.531104" projParameter="+proj=utm +zone=14 +ellps=WGS84 +datum=WGS84 +units=m +no_defs"/>

    <type id="highway.residential" priority="3" numLanes="1" speed="13.89" disallow="tram rail_urban rail rail_electric rail_fast ship container cable_car subway aircraft wheelchair scooter drone" oneway="0"/>
    <type id="highway.secondary" priority="11" numLanes="1" speed="27.78" disallow="tram rail_urban rail rail_electric rail_fast ship container cable_car subway aircraft wheelchair scooter drone" oneway="0"/>

    <edge id=":298287105_0" function="internal">
        <lane id=":298287105_0_0" index="0" disallow="tram rail_urban rail rail_electric rail_fast ship container cable_car subway aircraft wheelchair scooter drone" speed="6.58" length="8.72" shape="334.75,833.33 336.46,834.99 338.30,835.76 340.28,835.64 342.41,834.63"/>
    </edge>
    <edge id=":298287105_1" function="internal">
        <lane id=":298287105_1_0" index="0" disallow="tram rail_urban rail rail_electric rail_fast ship container cable_car subway aircraft wheelchair scooter drone" speed="6.52" length="8.67" shape="331.47,842.95 333.02,841.17 333.66,839.30 333.39,837.34 332.22,835.29"/>
    </edge>
    <edge id=":298287105_2" function="internal">
        <lane id=":298287105_2_0" index="0" disallow="tram rail_urban rail rail_electric rail_fast ship container cable_car subway aircraft wheelchair scooter drone" speed="13.89" length="13.76" shape="331.47,842.95 334.19,840.66 336.79,838.60 339.47,836.64 342.41,834.63"/>
    </edge>
    <edge id=":298922014_0" function="internal">
        <lane id=":298922014_0_0" index="0" disallow="tram rail_urban rail rail_electric rail_fast ship container cable_car subway aircraft wheelchair scooter drone" speed="5.52" length="9.50" shape="423.03,789.81 421.95,787.05 420.57,785.93 418.86,786.46 416.85,788.63"/>
    </edge>
    <edge id=":298922014_1" function="internal">
        <lane id=":298922014_1_0" index="0" disallow="tram rail_urban rail rail_electric rail_fast ship container cable_car subway aircraft wheelchair scooter drone" speed="11.70" length="14.03" shape="426.31,775.32 425.30,777.67 424.93,780.73 425.21,784.51 426.13,789.02"/>
    </edge>
    <edge id=":298922014_2" function="internal">
        <lane id=":298922014_2_0" index="0" disallow="tram rail_urban rail rail_electric rail_fast ship container cable_car subway aircraft wheelchair scooter drone" speed="13.89" length="16.23" shape="426.31,775.32 416.85,788.63"/>
        <lane id=":298922014_2_1" index="1" disallow="tram rail_urban rail rail_electric rail_fast ship container cable_car subway aircraft wheelchair scooter drone" speed="13.89" length="16.23" shape="423.66,773.54 414.25,786.76"/>
        <lane id=":298922014_2_2" index="2" disallow="tram rail_urban rail rail_electric rail_fast ship container cable_car subway aircraft wheelchair scooter drone" speed="13.89" length="16.23" shape="421.01,771.75 411.66,784.88"/>
    </edge>
    <edge id=":301603831_0" function="internal">
        <lane id=":301603831_0_0" index="0" disallow="tram rail_urban rail rail_electric rail_fast ship container cable_car subway aircraft wheelchair scooter drone" speed="5.50" length="9.58" shape="379.99,849.93 378.86,847.13 377.47,846.04 375.80,846.64 373.87,848.95"/>
    </edge>
    <edge id=":301603831_1" function="internal">
        <lane id=":301603831_1_0" index="0" disallow="tram rail_urban rail rail_electric rail_fast ship container cable_car subway aircraft wheelchair scooter drone" speed="11.38" length="14.31" shape="383.15,835.16 382.09,837.48 381.73,840.57 382.06,844.44 383.08,849.10"/>
    </edge>
    <edge id=":301603831_2" function="internal">
        <lane id=":301603831_2_0" index="0" disallow="tram rail_urban rail rail_electric rail_fast ship container cable_car subway aircraft wheelchair scooter drone" speed="13.89" length="16.77" shape="383.15,835.16 373.87,848.95"/>
        <lane id=":301603831_2_1" index="1" disallow="tram rail_urban rail rail_electric rail_fast ship container cable_car subway aircraft wheelchair scooter drone" speed="13.89" length="16.77" shape="380.55,833.28 371.19,847.20"/>
        <lane id=":301603831_2_2" index="2" disallow="tram rail_urban rail rail_electric rail_fast ship container cable_car subway aircraft wheelchair scooter drone" speed="13.89" length="16.77" shape="377.96,831.40 368.51,845.44"/>
    </edge>
    <edge id=":301603848_0" function="internal">
        <lane id=":301603848_0_0" index="0" disallow="tram rail_urban rail rail_electric rail_fast ship container cable_car subway aircraft wheelchair scooter drone" speed="6.47" length="9.03" shape="406.52,950.19 405.57,947.89 404.13,946.46 402.17,945.90 399.71,946.21"/>
    </edge>
    <edge id=":301603848_1" function="internal">
        <lane id=":301603848_1_0" index="0" disallow="tram rail_urban rail rail_electric rail_fast ship container cable_car subway aircraft wheelchair scooter drone" speed="6.54" length="9.09" shape="413.65,942.52 411.37,943.47 409.93,944.94 409.35,946.91 409.62,949.40"/>
    </edge>
    <edge id=":301603848_2" function="internal">
        <lane id=":301603848_2_0" index="0" disallow="tram rail_urban rail rail_electric rail_fast ship container cable_car subway aircraft wheelchair scooter drone" speed="27.78" length="14.44" shape="413.65,942.52 399.71,946.21"/>
        <lane id=":301603848_2_1" index="1" disallow="tram rail_urban rail rail_electric rail_fast ship container cable_car subway aircraft wheelchair scooter drone" speed="27.78" length="14.44" shape="412.85,939.42 398.87,943.12"/>
    </edge>
    <edge id=":301603850_0" function="internal">
        <lane id=":301603850_0_0" index="0" disallow="tram rail_urban rail rail_electric rail_fast ship container cable_car subway aircraft wheelchair scooter drone" speed="6.52" length="9.06" shape="404.06,926.72 405.04,929.01 406.51,930.43 408.48,930.99 410.93,930.69"/>
    </edge>
    <edge id=":301603850_1" function="internal">
        <lane id=":301603850_1_0" index="0" disallow="tram rail_urban rail rail_electric rail_fast ship container cable_car subway aircraft wheelchair scooter drone" speed="6.48" length="9.03" shape="397.00,934.38 399.28,933.43 400.71,931.97 401.27,930.01 400.97,927.55"/>
    </edge>
    <edge id=":301603850_2" function="internal">
        <lane id=":301603850_2_0" index="0" disallow="tram rail_urban rail rail_electric rail_fast ship container cable_car subway aircraft wheelchair scooter drone" speed="27.78" length="14.44" shape="397.00,934.38 410.93,930.69"/>
        <lane id=":301603850_2_1" index="1" disallow="tram rail_urban rail rail_electric rail_fast ship container cable_car subway aircraft wheelchair scooter drone" speed="27.78" length="14.44" shape="397.80,937.48 411.77,933.78"/>
    </edge>
    <edge id=":301603856_0" function="internal">
        <lane id=":301603856_0_0" index="0" disallow="tram rail_urban rail rail_electric rail_fast ship container cable_car subway aircraft wheelchair scooter drone" speed="6.47" length="9.03" shape="522.58,914.63 520.29,915.59 518.87,917.05 518.31,919.00 518.63,921.47"/>
    </edge>
    <edge id=":301603856_1" function="internal">
        <lane id=":301603856_1_0" index="0" disallow="tram rail_urban rail rail_electric rail_fast ship container cable_car subway aircraft wheelchair scooter drone" speed="27.78" length="11.19" shape="522.58,914.63 511.73,917.42"/>
        <lane id=":301603856_1_1" index="1" disallow="tram rail_urban rail rail_electric rail_fast ship container cable_car subway aircraft wheelchair scooter drone" speed="27.78" length="11.19" shape="521.77,911.53 510.94,914.31"/>
    </edge>
    <edge id=":301603859_0" function="internal">
        <lane id=":301603859_0_0" index="0" disallow="tram rail_urban rail rail_electric rail_fast ship container cable_car subway aircraft wheelchair scooter drone" speed="6.57" length="9.10" shape="513.91,897.71 514.89,900.02 516.36,901.47 518.33,902.07 520.78,901.82"/>
    </edge>
    <edge id=":301603859_1" function="internal">
        <lane id=":301603859_1_0" index="0" disallow="tram rail_urban rail rail_electric rail_fast ship container cable_car subway aircraft wheelchair scooter drone" speed="6.49" length="9.03" shape="506.84,905.37 509.13,904.41 510.55,902.96 511.12,901.00 510.82,898.54"/>
    </edge>
    <edge id=":301603859_2" function="internal">
        <lane id=":301603859_2_0" index="0" disallow="tram rail_urban rail rail_electric rail_fast ship container cable_car subway aircraft wheelchair scooter drone" speed="27.78" length="14.38" shape="506.84,905.37 520.78,901.82"/>
        <lane id=":301603859_2_1" index="1" disallow="tram rail_urban rail rail_electric rail_fast ship container cable_car subway aircraft wheelchair scooter drone" speed="27.78" length="14.38" shape="507.64,908.47 521.56,904.93"/>
    </edge>
    <edge id=":301603866_0" function="internal">
        <lane id=":301603866_0_0" index="0" disallow="tram rail_urban rail rail_electric rail_fast ship container cable_car subway aircraft wheelchair scooter drone" speed="9.18" length="6.76" shape="510.29,650.20 509.58,651.98 509.52,653.34 509.89,654.75 510.47,656.68"/>
    </edge>
    <edge id=":301603866_1" function="internal">
        <lane id=":301603866_1_0" index="0" disallow="tram rail_urban rail rail_electric rail_fast ship container cable_car subway aircraft wheelchair scooter drone" speed="13.89" length="6.71" shape="510.29,650.20 509.27,652.00 508.44,653.16 507.56,654.30 506.37,656.01"/>
        <lane id=":301603866_1_1" index="1" disallow="tram rail_urban rail rail_electric rail_fast ship container cable_car subway aircraft wheelchair scooter drone" speed="13.89" length="6.71" shape="507.45,648.72 506.47,650.44 505.68,651.55 504.83,652.63 503.69,654.26"/>
        <lane id=":301603866_1_2" index="2" disallow="tram rail_urban rail rail_electric rail_fast ship container cable_car subway aircraft wheelchair scooter drone" speed="13.89" length="6.71" shape="504.62,647.24 503.67,648.88 502.91,649.94 502.10,650.96 501.00,652.52"/>
    </edge>
    <edge id=":301603890_0" function="internal">
        <lane id=":301603890_0_0" index="0" disallow="tram rail_urban rail rail_electric rail_fast ship container cable_car subway aircraft wheelchair scooter drone" speed="20.84" length="21.72" shape="658.50,783.54 657.87,779.50 657.13,774.72 655.37,769.28 651.66,763.25"/>
    </edge>
    <edge id=":301603890_1" function="internal">
        <lane id=":301603890_1_0" index="0" disallow="tram rail_urban rail rail_electric rail_fast ship container cable_car subway aircraft wheelchair scooter drone" speed="5.62" length="12.00" shape="666.00,780.57 663.10,777.55 661.40,776.91 660.90,778.65 661.61,782.78"/>
    </edge>
    <edge id=":301603890_2" function="internal">
        <lane id=":301603890_2_0" index="0" disallow="tram rail_urban rail rail_electric rail_fast ship container cable_car subway aircraft wheelchair scooter drone" speed="27.78" length="22.41" shape="666.00,780.57 651.66,763.25"/>
        <lane id=":301603890_2_1" index="1" disallow="tram rail_urban rail rail_electric rail_fast ship container cable_car subway aircraft wheelchair scooter drone" speed="27.78" length="22.41" shape="668.46,778.53 654.17,761.26"/>
        <lane id=":301603890_2_2" index="2" disallow="tram rail_urban rail rail_electric rail_fast ship container cable_car subway aircraft wheelchair scooter drone" speed="27.78" length="22.41" shape="670.92,776.48 656.68,759.27"/>
    </edge>
    <edge id=":301606822_0" function="internal">
        <lane id=":301606822_0_0" index="0" disallow="tram rail_urban rail rail_electric rail_fast ship container cable_car subway aircraft wheelchair scooter drone" speed="3.65" length="4.67" shape="160.64,769.89 159.20,769.96 158.40,769.55 158.25,768.67 158.74,767.31"/>
    </edge>
    <edge id=":301606826_0" function="internal">
        <lane id=":301606826_0_0" index="0" disallow="tram rail_urban rail rail_electric rail_fast ship container cable_car subway aircraft wheelchair scooter drone" speed="3.90" length="2.58" shape="275.46,684.40 274.96,683.90 274.42,683.69 273.84,683.76 273.22,684.11"/>
    </edge>
    <edge id=":301606826_1" function="internal">
        <lane id=":301606826_1_0" index="0" disallow="tram rail_urban rail rail_electric rail_fast ship container cable_car subway aircraft wheelchair scooter drone" speed="5.64" length="6.51" shape="271.27,681.58 272.56,680.96 273.91,681.05 275.30,681.86 276.75,683.39"/>
    </edge>
    <edge id=":301606826_2" function="internal">
        <lane id=":301606826_2_0" index="0" disallow="tram rail_urban rail rail_electric rail_fast ship container cable_car subway aircraft wheelchair scooter drone" speed="3.65" length="4.67" shape="271.27,681.58 272.70,681.48 273.51,681.87 273.68,682.75 273.22,684.11"/>
    </edge>
    <edge id=":301606827_0" function="internal">
        <lane id=":301606827_0_0" index="0" disallow="tram rail_urban rail rail_electric rail_fast ship container cable_car subway aircraft wheelchair scooter drone" speed="6.49" length="8.89" shape="240.06,717.10 238.29,715.39 236.41,714.65 234.42,714.86 232.32,716.03"/>
    </edge>
    <edge id=":301606827_1" function="internal">
        <lane id=":301606827_1_0" index="0" disallow="tram rail_urban rail rail_electric rail_fast ship container cable_car subway aircraft wheelchair scooter drone" speed="7.87" length="13.79" shape="240.06,717.10 238.02,713.69 237.48,710.54 238.44,707.66 240.89,705.05"/>
    </edge>
    <edge id=":301606827_2" function="internal">
        <lane id=":301606827_2_0" index="0" disallow="tram rail_urban rail rail_electric rail_fast ship container cable_car subway aircraft wheelchair scooter drone" speed="3.65" length="4.68" shape="240.06,717.10 239.89,715.67 240.23,714.84 241.10,714.63 242.49,715.02"/>
    </edge>
    <edge id=":301606827_3" function="internal">
        <lane id=":301606827_3_0" index="0" disallow="tram rail_urban rail rail_electric rail_fast ship container cable_car subway aircraft wheelchair scooter drone" speed="6.39" length="8.73" shape="243.09,707.39 241.52,709.06 240.89,710.88 241.22,712.87 242.49,715.02"/>
    </edge>
    <edge id=":301606827_4" function="internal">
        <lane id=":301606827_4_0" index="0" disallow="tram rail_urban rail rail_electric rail_fast ship container cable_car subway aircraft wheelchair scooter drone" speed="13.89" length="13.81" shape="243.09,707.39 232.32,716.03"/>
    </edge>
    <edge id=":301606827_5" function="internal">
        <lane id=":301606827_5_0" index="0" disallow="tram rail_urban rail rail_electric rail_fast ship container cable_car subway aircraft wheelchair scooter drone" speed="3.66" length="1.45" shape="243.09,707.39 241.66,707.63"/>
    </edge>
    <edge id=":301606827_9" function="internal">
        <lane id=":301606827_9_0" index="0" disallow="tram rail_urban rail rail_electric rail_fast ship container cable_car subway aircraft wheelchair scooter drone" speed="3.66" length="3.25" shape="241.66,707.63 240.82,707.32 240.56,706.46 240.89,705.05"/>
    </edge>
    <edge id=":301606827_6" function="internal">
        <lane id=":301606827_6_0" index="0" disallow="tram rail_urban rail rail_electric rail_fast ship container cable_car subway aircraft wheelchair scooter drone" speed="13.89" length="13.35" shape="230.48,713.41 240.89,705.05"/>
    </edge>
    <edge id=":301606827_7" function="internal">
        <lane id=":301606827_7_0" index="0" disallow="tram rail_urban rail rail_electric rail_fast ship container cable_car subway aircraft wheelchair scooter drone" speed="7.93" length="3.75" shape="230.48,713.41 233.75,711.58"/>
    </edge>
    <edge id=":301606827_8" function="internal">
        <lane id=":301606827_8_0" index="0" disallow="tram rail_urban rail rail_electric rail_fast ship container cable_car subway aircraft wheelchair scooter drone" speed="3.65" length="1.44" shape="230.48,713.41 231.92,713.37"/>
    </edge>
    <edge id=":301606827_10" function="internal">
        <lane id=":301606827_10_0" index="0" disallow="tram rail_urban rail rail_electric rail_fast ship container cable_car subway aircraft wheelchair scooter drone" speed="7.93" length="10.04" shape="233.75,711.58 236.84,711.24 239.75,712.38 242.49,715.02"/>
    </edge>
    <edge id=":301606827_11" function="internal">
        <lane id=":301606827_11_0" index="0" disallow="tram rail_urban rail rail_electric rail_fast ship container cable_car subway aircraft wheelchair scooter drone" speed="3.65" length="3.23" shape="231.92,713.37 232.71,713.80 232.84,714.68 232.32,716.03"/>
    </edge>
    <edge id=":cluster298241342_8336864778_0" function="internal">
        <lane id=":cluster298241342_8336864778_0_0" index="0" disallow="tram rail_urban rail rail_electric rail_fast ship container cable_car subway aircraft wheelchair scooter drone" speed="6.28" length="10.36" shape="370.02,802.97 371.97,804.71 373.98,805.02 376.07,803.90 378.22,801.35"/>
    </edge>
    <edge id=":cluster298241342_8336864778_1" function="internal">
        <lane id=":cluster298241342_8336864778_1_0" index="0" disallow="tram rail_urban rail rail_electric rail_fast ship container cable_car subway aircraft wheelchair scooter drone" speed="10.12" length="24.51" shape="357.89,824.38 364.58,819.12 368.41,814.12 369.38,809.38 367.49,804.90"/>
    </edge>
    <edge id=":cluster298241342_8336864778_2" function="internal">
        <lane id=":cluster298241342_8336864778_2_0" index="0" disallow="tram rail_urban rail rail_electric rail_fast ship container cable_car subway aircraft wheelchair scooter drone" speed="13.89" length="31.54" shape="357.89,824.38 362.06,821.64 367.82,817.39 374.35,811.32 380.88,803.13"/>
    </edge>
    <edge id=":cluster298241342_8336864778_3" function="internal">
        <lane id=":cluster298241342_8336864778_3_0" index="0" disallow="tram rail_urban rail rail_electric rail_fast ship container cable_car subway aircraft wheelchair scooter drone" speed="12.10" length="24.74" shape="361.31,827.73 365.72,819.98 368.22,813.59 368.81,808.57 367.49,804.90"/>
    </edge>
    <edge id=":cluster298241342_8336864778_4" function="internal">
        <lane id=":cluster298241342_8336864778_4_0" index="0" disallow="tram rail_urban rail rail_electric rail_fast ship container cable_car subway aircraft wheelchair scooter drone" speed="13.89" length="31.27" shape="361.31,827.73 378.22,801.35"/>
        <lane id=":cluster298241342_8336864778_4_1" index="1" disallow="tram rail_urban rail rail_electric rail_fast ship container cable_car subway aircraft wheelchair scooter drone" speed="13.89" length="31.27" shape="364.00,829.45 380.88,803.13"/>
        <lane id=":cluster298241342_8336864778_4_2" index="2" disallow="tram rail_urban rail rail_electric rail_fast ship container cable_car subway aircraft wheelchair scooter drone" speed="13.89" length="31.27" shape="366.70,831.17 383.54,804.91"/>
    </edge>
    <edge id=":cluster301607514_8112075145_0" function="internal">
        <lane id=":cluster301607514_8112075145_0_0" index="0" disallow="tram rail_urban rail rail_electric rail_fast ship container cable_car subway aircraft wheelchair scooter drone" speed="6.53" length="11.28" shape="543.14,543.39 545.78,546.18 548.16,547.44 550.29,547.17 552.16,545.37"/>
    </edge>
    <edge id=":cluster301607514_8112075145_1" function="internal">
        <lane id=":cluster301607514_8112075145_1_0" index="0" disallow="tram rail_urban rail rail_electric rail_fast ship container cable_car subway aircraft wheelchair scooter drone" speed="8.68" length="13.32" shape="543.67,557.45 544.64,555.12 544.45,552.32 543.11,549.07 540.62,545.35"/>
    </edge>
    <edge id=":cluster301607514_8112075145_2" function="internal">
        <lane id=":cluster301607514_8112075145_2_0" index="0" disallow="tram rail_urban rail rail_electric rail_fast ship container cable_car subway aircraft wheelchair scooter drone" speed="13.89" length="14.88" shape="543.67,557.45 552.16,545.37"/>
        <lane id=":cluster301607514_8112075145_2_1" index="1" disallow="tram rail_urban rail rail_electric rail_fast ship container cable_car subway aircraft wheelchair scooter drone" speed="13.89" length="14.88" shape="546.25,559.34 554.81,547.17"/>
        <lane id=":cluster301607514_8112075145_2_2" index="2" disallow="tram rail_urban rail rail_electric rail_fast ship container cable_car subway aircraft wheelchair scooter drone" speed="13.89" length="14.88" shape="548.83,561.23 557.46,548.97"/>
    </edge>
    <edge id=":cluster8336910877_cluster301603852_8336910878_0" function="internal">
        <lane id=":cluster8336910877_cluster301603852_8336910878_0_0" index="0" disallow="tram rail_urban rail rail_electric rail_fast ship container cable_car subway aircraft wheelchair scooter drone" speed="6.91" length="15.97" shape="465.00,728.05 463.59,725.71 461.30,725.94 458.14,728.73 454.09,734.10"/>
    </edge>
    <edge id=":cluster8336910877_cluster301603852_8336910878_1" function="internal">
        <lane id=":cluster8336910877_cluster301603852_8336910878_1_0" index="0" disallow="tram rail_urban rail rail_electric rail_fast ship container cable_car subway aircraft wheelchair scooter drone" speed="13.84" length="19.62" shape="472.23,708.62 469.55,713.52 467.97,718.25 467.48,722.82 468.09,727.22"/>
    </edge>
    <edge id=":cluster8336910877_cluster301603852_8336910878_2" function="internal">
        <lane id=":cluster8336910877_cluster301603852_8336910878_2_0" index="0" disallow="tram rail_urban rail rail_electric rail_fast ship container cable_car subway aircraft wheelchair scooter drone" speed="13.89" length="31.22" shape="472.23,708.62 454.09,734.10"/>
        <lane id=":cluster8336910877_cluster301603852_8336910878_2_1" index="1" disallow="tram rail_urban rail rail_electric rail_fast ship container cable_car subway aircraft wheelchair scooter drone" speed="13.89" length="31.22" shape="469.55,706.88 451.44,732.31"/>
        <lane id=":cluster8336910877_cluster301603852_8336910878_2_2" index="2" disallow="tram rail_urban rail rail_electric rail_fast ship container cable_car subway aircraft wheelchair scooter drone" speed="13.89" length="31.22" shape="466.87,705.14 448.79,730.52"/>
    </edge>
    <edge id=":cluster8336910880_cluster8112075144_cluster_297339714_8336910879_0" function="internal">
        <lane id=":cluster8336910880_cluster8112075144_cluster_297339714_8336910879_0_0" index="0" disallow="tram rail_urban rail rail_electric rail_fast ship container cable_car subway aircraft wheelchair scooter drone" speed="6.33" length="9.60" shape="530.07,626.30 527.61,624.87 525.46,624.60 523.62,625.48 522.10,627.52"/>
    </edge>
    <edge id=":cluster8336910880_cluster8112075144_cluster_297339714_8336910879_1" function="internal">
        <lane id=":cluster8336910880_cluster8112075144_cluster_297339714_8336910879_1_0" index="0" disallow="tram rail_urban rail rail_electric rail_fast ship container cable_car subway aircraft wheelchair scooter drone" speed="20.84" length="36.06" shape="532.02,623.76 523.02,616.93 514.64,610.49 508.01,604.96 504.25,600.86"/>
    </edge>
    <edge id=":cluster8336910880_cluster8112075144_cluster_297339714_8336910879_2" function="internal">
        <lane id=":cluster8336910880_cluster8112075144_cluster_297339714_8336910879_2_0" index="0" disallow="tram rail_urban rail rail_electric rail_fast ship container cable_car subway aircraft wheelchair scooter drone" speed="11.21" length="28.40" shape="533.97,621.22 524.89,613.84 518.87,607.94 515.91,603.51 516.00,600.57"/>
        <lane id=":cluster8336910880_cluster8112075144_cluster_297339714_8336910879_2_1" index="1" disallow="tram rail_urban rail rail_electric rail_fast ship container cable_car subway aircraft wheelchair scooter drone" speed="10.61" length="25.36" shape="533.97,621.22 526.01,614.69 520.79,609.38 518.31,605.31 518.58,602.46"/>
    </edge>
    <edge id=":cluster8336910880_cluster8112075144_cluster_297339714_8336910879_4" function="internal">
        <lane id=":cluster8336910880_cluster8112075144_cluster_297339714_8336910879_4_0" index="0" disallow="tram rail_urban rail rail_electric rail_fast ship container cable_car subway aircraft wheelchair scooter drone" speed="13.89" length="18.99" shape="529.97,610.82 527.16,615.51 525.70,618.97 524.40,622.53 522.10,627.52"/>
        <lane id=":cluster8336910880_cluster8112075144_cluster_297339714_8336910879_4_1" index="1" disallow="tram rail_urban rail rail_electric rail_fast ship container cable_car subway aircraft wheelchair scooter drone" speed="13.89" length="18.99" shape="527.39,608.93 524.50,613.73 522.98,617.28 521.63,620.93 519.27,626.04"/>
        <lane id=":cluster8336910880_cluster8112075144_cluster_297339714_8336910879_4_2" index="2" disallow="tram rail_urban rail rail_electric rail_fast ship container cable_car subway aircraft wheelchair scooter drone" speed="13.89" length="18.99" shape="524.81,607.03 521.83,611.96 520.26,615.59 518.87,619.32 516.43,624.56"/>
    </edge>
    <edge id=":cluster8336910880_cluster8112075144_cluster_297339714_8336910879_7" function="internal">
        <lane id=":cluster8336910880_cluster8112075144_cluster_297339714_8336910879_7_0" index="0" disallow="tram rail_urban rail rail_electric rail_fast ship container cable_car subway aircraft wheelchair scooter drone" speed="9.48" length="10.64" shape="524.81,607.03 519.65,611.67 515.95,611.53"/>
    </edge>
    <edge id=":cluster8336910880_cluster8112075144_cluster_297339714_8336910879_12" function="internal">
        <lane id=":cluster8336910880_cluster8112075144_cluster_297339714_8336910879_12_0" index="0" disallow="tram rail_urban rail rail_electric rail_fast ship container cable_car subway aircraft wheelchair scooter drone" speed="9.48" length="16.41" shape="515.95,611.53 514.34,611.48 509.13,607.52 504.25,600.86"/>
    </edge>
    <edge id=":cluster8336910880_cluster8112075144_cluster_297339714_8336910879_8" function="internal">
        <lane id=":cluster8336910880_cluster8112075144_cluster_297339714_8336910879_8_0" index="0" disallow="tram rail_urban rail rail_electric rail_fast ship container cable_car subway aircraft wheelchair scooter drone" speed="10.60" length="17.13" shape="501.70,616.89 504.27,612.29 505.56,608.08 505.55,604.27 504.25,600.86"/>
    </edge>
    <edge id=":cluster8336910880_cluster8112075144_cluster_297339714_8336910879_9" function="internal">
        <lane id=":cluster8336910880_cluster8112075144_cluster_297339714_8336910879_9_0" index="0" disallow="tram rail_urban rail rail_electric rail_fast ship container cable_car subway aircraft wheelchair scooter drone" speed="13.89" length="21.17" shape="501.70,616.89 513.42,598.68"/>
        <lane id=":cluster8336910880_cluster8112075144_cluster_297339714_8336910879_9_1" index="1" disallow="tram rail_urban rail rail_electric rail_fast ship container cable_car subway aircraft wheelchair scooter drone" speed="13.89" length="21.17" shape="504.56,618.38 516.00,600.57"/>
        <lane id=":cluster8336910880_cluster8112075144_cluster_297339714_8336910879_9_2" index="2" disallow="tram rail_urban rail rail_electric rail_fast ship container cable_car subway aircraft wheelchair scooter drone" speed="13.89" length="21.17" shape="507.41,619.87 518.58,602.46"/>
    </edge>
    <edge id=":cluster_298922025_298922026_0" function="internal">
        <lane id=":cluster_298922025_298922026_0_0" index="0" disallow="tram rail_urban rail rail_electric rail_fast ship container cable_car subway aircraft wheelchair scooter drone" speed="6.52" length="9.05" shape="460.13,936.35 459.18,934.06 457.72,932.63 455.76,932.04 453.30,932.31"/>
    </edge>
    <edge id=":cluster_298922025_298922026_1" function="internal">
        <lane id=":cluster_298922025_298922026_1_0" index="0" disallow="tram rail_urban rail rail_electric rail_fast ship container cable_car subway aircraft wheelchair scooter drone" speed="13.89" length="23.95" shape="460.13,936.35 454.60,913.05"/>
    </edge>
    <edge id=":cluster_298922025_298922026_2" function="internal">
        <lane id=":cluster_298922025_298922026_2_0" index="0" disallow="tram rail_urban rail rail_electric rail_fast ship container cable_car subway aircraft wheelchair scooter drone" speed="9.14" length="18.85" shape="460.13,936.35 459.68,931.45 460.48,926.15 462.40,921.72 465.32,919.38"/>
    </edge>
    <edge id=":cluster_298922025_298922026_3" function="internal">